powerfactory/powerfactory-converter/src/test/resources/ThreeWindingsTransformerSharedVoltageControl.xiidm
<?xml version="1.0" encoding="UTF-8"?>
<iidm:network xmlns:iidm="http://www.powsybl.org/schema/iidm/1_17" id="ThreeWindingsTransformerSharedVoltageControl" caseDate="2021-01-01T10:00:00.000+02:00" forecastDistance="0" sourceFormat="POWER-FACTORY" minimumValidationLevel="STEADY_STATE_HYPOTHESIS">
    <iidm:substation id="S50">
        <iidm:voltageLevel id="VL50" nominalV="400.0" topologyKind="NODE_BREAKER">
            <iidm:nodeBreakerTopology>
                <iidm:busbarSection id="VL50_Bus 1-Slack" node="0"/>
                <iidm:internalConnection node1="0" node2="1"/>
                <iidm:internalConnection node1="0" node2="2"/>
            </iidm:nodeBreakerTopology>
            <iidm:generator id="Gen_1_1" energySource="OTHER" minP="0.0" maxP="50.470001220703125" targetP="50.470001220703125" localTargetV="423.9999771118164" localTargetQ="0.0" node="2">
                <iidm:minMaxReactiveLimits minQ="0.0" maxQ="0.0"/>
                <iidm:voltageRegulation mode="VOLTAGE" regulating="true"/>
            </iidm:generator>
        </iidm:voltageLevel>
    </iidm:substation>
    <iidm:substation id="S51">
        <iidm:voltageLevel id="VL51" nominalV="400.0" topologyKind="NODE_BREAKER">
            <iidm:nodeBreakerTopology>
                <iidm:busbarSection id="VL51_Bus 2" node="0"/>
                <iidm:internalConnection node1="0" node2="1"/>
                <iidm:internalConnection node1="0" node2="2"/>
                <iidm:internalConnection node1="0" node2="3"/>
            </iidm:nodeBreakerTopology>
        </iidm:voltageLevel>
        <iidm:voltageLevel id="VL52" nominalV="110.0" topologyKind="NODE_BREAKER">
            <iidm:nodeBreakerTopology>
                <iidm:busbarSection id="VL52_Bus 2M" node="0"/>
                <iidm:internalConnection node1="0" node2="1"/>
                <iidm:internalConnection node1="0" node2="2"/>
                <iidm:internalConnection node1="0" node2="3"/>
            </iidm:nodeBreakerTopology>
            <iidm:load id="Load_2M_1" loadType="UNDEFINED" p0="50.0" q0="25.0" node="1"/>
        </iidm:voltageLevel>
        <iidm:voltageLevel id="VL53" nominalV="20.0" topologyKind="NODE_BREAKER">
            <iidm:nodeBreakerTopology>
                <iidm:busbarSection id="VL53_Bus 2L" node="0"/>
                <iidm:internalConnection node1="0" node2="1"/>
                <iidm:internalConnection node1="0" node2="2"/>
                <iidm:internalConnection node1="0" node2="3"/>
            </iidm:nodeBreakerTopology>
            <iidm:load id="Load_2L_1" loadType="UNDEFINED" p0="50.0" q0="25.0" node="1"/>
        </iidm:voltageLevel>
        <iidm:threeWindingsTransformer id="T3w_2_2M_2L_1" r1="-7.799049110263946E-7" x1="1.1395922102037156E-4" g1="0.14457200622558594" b1="-0.10790173166599534" ratedU1="515.0" ratedS1="101.0" r2="2.5065552122616057E-6" x2="1.9130867337766516E-4" ratedU2="18.360000610351562" ratedS2="201.0" r3="8.390848909671972E-7" x3="5.517907605617501E-4" ratedU3="15.680000305175781" ratedS3="301.0" ratedU0="1.0" voltageLevelId1="VL51" node1="2" voltageLevelId2="VL52" node2="2" voltageLevelId3="VL53" node3="2">
            <iidm:ratioTapChanger1 tapPosition="12" loadTapChangingCapabilities="true">
                <iidm:step rho="1.103448275862069"/>
                <iidm:step rho="1.081081081081081"/>
                <iidm:step rho="1.0596026490066226"/>
                <iidm:step rho="1.0389610389610389"/>
                <iidm:step rho="1.019108280254777"/>
                <iidm:step rho="1.0"/>
                <iidm:step rho="0.9815950920245399"/>
                <iidm:step rho="0.9638554216867469"/>
                <iidm:step rho="0.9467455621301776"/>
                <iidm:step rho="0.9302325581395349"/>
                <iidm:step rho="0.9142857142857143"/>
                <iidm:step rho="0.898876404494382"/>
                <iidm:step rho="0.8839779005524862"/>
                <iidm:voltageRegulation mode="VOLTAGE" regulating="true" targetDeadband="11.999988555908203" targetValue="400.0">
                    <iidm:terminalRef id="VL51_Bus 2"/>
                </iidm:voltageRegulation>
            </iidm:ratioTapChanger1>
        </iidm:threeWindingsTransformer>
        <iidm:threeWindingsTransformer id="T3w_2_2M_2L_2" r1="-7.799049110263946E-7" x1="1.1395922102037156E-4" g1="0.14457200622558594" b1="-0.10790173166599534" ratedU1="515.0" ratedS1="101.0" r2="2.5065552122616057E-6" x2="1.9130867337766516E-4" ratedU2="18.360000610351562" ratedS2="201.0" r3="8.390848909671972E-7" x3="5.517907605617501E-4" ratedU3="15.680000305175781" ratedS3="301.0" ratedU0="1.0" voltageLevelId1="VL51" node1="3" voltageLevelId2="VL52" node2="3" voltageLevelId3="VL53" node3="3">
            <iidm:ratioTapChanger1 tapPosition="12" loadTapChangingCapabilities="true">
                <iidm:step rho="1.103448275862069"/>
                <iidm:step rho="1.081081081081081"/>
                <iidm:step rho="1.0596026490066226"/>
                <iidm:step rho="1.0389610389610389"/>
                <iidm:step rho="1.019108280254777"/>
                <iidm:step rho="1.0"/>
                <iidm:step rho="0.9815950920245399"/>
                <iidm:step rho="0.9638554216867469"/>
                <iidm:step rho="0.9467455621301776"/>
                <iidm:step rho="0.9302325581395349"/>
                <iidm:step rho="0.9142857142857143"/>
                <iidm:step rho="0.898876404494382"/>
                <iidm:step rho="0.8839779005524862"/>
                <iidm:voltageRegulation mode="VOLTAGE" regulating="true" targetDeadband="11.999988555908203" targetValue="400.0">
                    <iidm:terminalRef id="VL51_Bus 2"/>
                </iidm:voltageRegulation>
            </iidm:ratioTapChanger1>
        </iidm:threeWindingsTransformer>
    </iidm:substation>
    <iidm:line id="Line_1_2_1" r="31.007963180541992" x="94.67198181152344" b1="1.0815001583099366E-4" b2="1.0815001583099366E-4" voltageLevelId1="VL50" node1="1" voltageLevelId2="VL51" node2="1"/>
</iidm:network>